[General]

network                   = dronenetwork.DroneNetwork
sim-time-limit            = 120s        # ventana suficiente para converger
warmup-period             = 0.5s        # descarta transitorios de arranque
seed-set                  = 0           # semilla fija 
                                       

# Desactivar registros no usados 
**.routingRecorder.enabled  = false
**.sctp.enableHeartbeats    = false
**.sctp.**.scalar-recording = false
**.sctp.**.vector-recording = false
**.sctp.nagleEnabled        = false


*.configurator.config                         = xmldoc("network_config.xml")
*.configurator.addStaticRoutes                = true
*.configurator.addDefaultRoutes               = true
*.configurator.assignDisjunctSubnetAddresses  = true

#------------------------------------------------------------------------------
# TOPOLOGIA 
#------------------------------------------------------------------------------

*.numGnb = 3
*.numUe  = 6

#------------------------------------------------------------------------------
# AREA DE SIMULACION
#------------------------------------------------------------------------------
**.mobility.constraintAreaMinX    = 0m
**.mobility.constraintAreaMinY    = 0m
**.mobility.constraintAreaMinZ    = 0m
**.mobility.constraintAreaMaxX    = 2000m
**.mobility.constraintAreaMaxY    = 2000m
**.mobility.constraintAreaMaxZ    = 150m
**.mobility.initFromDisplayString = false

#------------------------------------------------------------------------------
# PORTADORA Y RECURSOS RADIO (5G NR FR1)
#------------------------------------------------------------------------------
*.carrierAggregation.componentCarrier[0].carrierFrequency = 2.6GHz
*.carrierAggregation.componentCarrier[0].numBands         = 52
*.carrierAggregation.componentCarrier[0].numerologyIndex  = 0

#------------------------------------------------------------------------------
# POTENCIAS DE TRANSMISION
#------------------------------------------------------------------------------
**.ueTxPower     = 23     # dBm 
**.eNodeBTxPower = 46     # dBm 

#------------------------------------------------------------------------------
# CANAL REALISTA
#------------------------------------------------------------------------------

**.scenario             = "URBAN_MACROCELL"
**.shadowing            = true
**.correlation_distance = 50
**.fading               = true
**.fading_type          = "JAKES"
**.dynamic_los          = true


*.ue[*].cellularNic.nrPhy.dynamicCellAssociation = true
*.ue[*].masterId    = 0    # ignorado al estar activa la asociacion dinamica
*.ue[*].macCellId   = 0
*.ue[*].nrMasterId  = 1
*.ue[*].nrMacCellId = 1


*.gNodeB[*].cellularNic.nrPhy.targetBler = 0.1
*.ue[*].cellularNic.nrPhy.targetBler     = 0.1

#------------------------------------------------------------------------------
# HANDOVER 
#------------------------------------------------------------------------------
*.ue[*].cellularNic.nrPhy.enableHandover      = true
*.gNodeB[*].cellularNic.phy.enableHandover    = true
*.gNodeB[*].cellularNic.phy.handoverLatency   = 50ms    # tipico 5G NR
*.gNodeB[*].cellInfo.broadcastMessageInterval = 1s      # agilidad vs senalizacion

**.gNodeB[0].macCellId = 1
**.gNodeB[0].macNodeId = 1
**.gNodeB[1].macCellId = 2
**.gNodeB[1].macNodeId = 2
**.gNodeB[2].macCellId = 3
**.gNodeB[2].macNodeId = 3

# Interfaz X2 
*.gNodeB[*].numX2Apps = 2
*.gNodeB[*].x2App[*].server.localPort = 6000 + ancestorIndex(1)
*.gNodeB[0].x2App[0].client.connectAddress = "gNodeB[1]%x2ppp0"
*.gNodeB[0].x2App[1].client.connectAddress = "gNodeB[2]%x2ppp0"
*.gNodeB[1].x2App[0].client.connectAddress = "gNodeB[0]%x2ppp0"
*.gNodeB[1].x2App[1].client.connectAddress = "gNodeB[2]%x2ppp0"
*.gNodeB[2].x2App[0].client.connectAddress = "gNodeB[0]%x2ppp0"
*.gNodeB[2].x2App[1].client.connectAddress = "gNodeB[1]%x2ppp0"

#------------------------------------------------------------------------------
# USUARIOS
#------------------------------------------------------------------------------

*.ue[*].mobility.typename      = "LinearMobility"
*.ue[*].mobility.initialZ      = 1.5m      
*.ue[*].mobility.speed         = 5mps       
*.ue[*].mobility.updateInterval = 0.1s

# Cluster A
*.ue[0].mobility.initialX = 250m
*.ue[0].mobility.initialY = 300m
*.ue[0].mobility.angle    = 30deg
*.ue[1].mobility.initialX = 450m
*.ue[1].mobility.initialY = 200m
*.ue[1].mobility.angle    = 60deg

# Cluster B
*.ue[2].mobility.initialX = 1600m
*.ue[2].mobility.initialY = 900m
*.ue[2].mobility.angle    = 150deg
*.ue[3].mobility.initialX = 1750m
*.ue[3].mobility.initialY = 650m
*.ue[3].mobility.angle    = 200deg

# Cluster C
*.ue[4].mobility.initialX = 1000m
*.ue[4].mobility.initialY = 1700m
*.ue[4].mobility.angle    = 300deg
*.ue[5].mobility.initialX = 1300m
*.ue[5].mobility.initialY = 1650m
*.ue[5].mobility.angle    = 330deg


*.ue[*].numApps = 2

# Telemetría en los UEs
*.ue[*].app[0].typename = "UESender"
*.ue[*].app[0].destAddress = "server"
*.ue[*].app[0].destPort = 5000
*.ue[*].app[0].localPort = -1
*.ue[*].app[0].sendInterval = 0.5s

# Tráfico de los UEs
*.ue[0].app[1].typename = "VoIPSender" 
*.ue[0].app[1].destAddress = "server" 
*.ue[0].app[1].destPort = 3000 
*.ue[0].app[1].localPort = -1 
*.ue[0].app[1].PacketSize = 1250 # bytes 
*.ue[0].app[1].sampling_time = 0.0004s # 25 mbps 
*.ue[0].app[1].silences = false 
*.ue[0].app[1].startTime = 0.5s

*.ue[1].app[1].typename = "VoIPSender" 
*.ue[1].app[1].destAddress = "server" 
*.ue[1].app[1].destPort = 3001 
*.ue[1].app[1].localPort = -1 
*.ue[1].app[1].PacketSize = 1250 # bytes 
*.ue[1].app[1].sampling_time = 0.0004s # 25 mbps 
*.ue[1].app[1].silences = false 
*.ue[1].app[1].startTime = 0.5s


*.ue[2].app[1].typename = "VoIPSender" 
*.ue[2].app[1].destAddress = "server" 
*.ue[2].app[1].destPort = 3002 
*.ue[2].app[1].localPort = -1 
*.ue[2].app[1].PacketSize = 1250 # bytes 
*.ue[2].app[1].sampling_time = 0.0004s # 25 mbps 
*.ue[2].app[1].silences = false 
*.ue[2].app[1].startTime = 0.5s

*.ue[3].app[1].typename = "VoIPSender" 
*.ue[3].app[1].destAddress = "server" 
*.ue[3].app[1].destPort = 3003 
*.ue[3].app[1].localPort = -1 
*.ue[3].app[1].PacketSize = 1250 # bytes 
*.ue[3].app[1].sampling_time = 0.0004s # 25 mbps 
*.ue[3].app[1].silences = false 
*.ue[3].app[1].startTime = 0.5s

*.ue[4].app[1].typename = "VoIPSender" 
*.ue[4].app[1].destAddress = "server" 
*.ue[4].app[1].destPort = 3004 
*.ue[4].app[1].localPort = -1 
*.ue[4].app[1].PacketSize = 1250 # bytes 
*.ue[4].app[1].sampling_time = 0.0004s # 25 mbps 
*.ue[4].app[1].silences = false 
*.ue[4].app[1].startTime = 0.5s

*.ue[5].app[1].typename = "VoIPSender" 
*.ue[5].app[1].destAddress = "server" 
*.ue[5].app[1].destPort = 3005 
*.ue[5].app[1].localPort = -1 
*.ue[5].app[1].PacketSize = 1250 # bytes 
*.ue[5].app[1].sampling_time = 0.0004s # 25 mbps 
*.ue[5].app[1].silences = false 
*.ue[5].app[1].startTime = 0.5s


#==============================================================================
#  ESTACIONES
#==============================================================================

*.gNodeB[*].numApps = 1
*.gNodeB[*].app[0].typename     = "GnbSender"
*.gNodeB[*].app[0].destAddress  = "server"
*.gNodeB[*].app[0].destPort     = 5000
*.gNodeB[*].app[0].localPort    = -1
*.gNodeB[*].app[0].sendInterval = 0.5s


#==============================================================================
#  SERVIDOR
#==============================================================================*.server.numApps = 8

*.server.app[0].typename = "Receiver"
*.server.app[0].localPort = 5000
	
*.server.app[1].typename = "TcpClient"
*.server.app[1].serverThreadModuleType = ""

*.server.app[2].typename = "VoIPReceiver" 
*.server.app[2].localPort = 3000

*.server.app[3].typename = "VoIPReceiver" 
*.server.app[3].localPort = 3001

*.server.app[4].typename = "VoIPReceiver" 
*.server.app[4].localPort = 3002

*.server.app[5].typename = "VoIPReceiver" 
*.server.app[5].localPort = 3003

*.server.app[6].typename = "VoIPReceiver" 
*.server.app[6].localPort = 3004

*.server.app[7].typename = "VoIPReceiver" 
*.server.app[7].localPort = 3005


#==============================================================================
#  ESTÁTICO
#==============================================================================

#==============================================================================
[Config Estatico]
description = "Estaciones fijas - linea base de cobertura"

*.gNodeB[*].mobility.typename = "StationaryMobility"
*.gNodeB[*].mobility.initialZ = 25m

*.gNodeB[0].mobility.initialX = 700m
*.gNodeB[0].mobility.initialY = 700m

*.gNodeB[1].mobility.initialX = 1500m
*.gNodeB[1].mobility.initialY = 700m

*.gNodeB[2].mobility.initialX = 1100m
*.gNodeB[2].mobility.initialY = 1500m


#==============================================================================
# CENTROIDES SIMPLES
#==============================================================================

[Config Centroides]
description = "Reposicionamiento por centroide"

*.gNodeB[*].mobility.typename       = "SupervisedMobility"
*.gNodeB[*].mobility.initialZ       = 25m
*.gNodeB[*].mobility.defaultSpeed   = 20mps
*.gNodeB[*].mobility.updateInterval = 0.1s

*.gNodeB[0].mobility.initialX = 700m
*.gNodeB[0].mobility.initialY = 700m

*.gNodeB[1].mobility.initialX = 1500m
*.gNodeB[1].mobility.initialY = 700m

*.gNodeB[2].mobility.initialX = 1100m
*.gNodeB[2].mobility.initialY = 1500m



#==============================================================================
# CENTROIDES PONDERADOS
#==============================================================================

[Config CentroidesPonderados]
description = "Reposicionamiento por centroide ponderado"

*.gNodeB[*].mobility.typename       = "SupervisedMobility"
*.gNodeB[*].mobility.initialZ       = 25m
*.gNodeB[*].mobility.defaultSpeed   = 20mps
*.gNodeB[*].mobility.updateInterval = 0.1s

*.gNodeB[0].mobility.initialX = 700m
*.gNodeB[0].mobility.initialY = 700m

*.gNodeB[1].mobility.initialX = 1500m
*.gNodeB[1].mobility.initialY = 700m

*.gNodeB[2].mobility.initialX = 1100m
*.gNodeB[2].mobility.initialY = 1500m


#==============================================================================
#   K-MEANS
#==============================================================================

[Config KMeans]
description = "Reposicionamiento por k-means"

*.gNodeB[*].mobility.typename       = "SupervisedMobility"
*.gNodeB[*].mobility.initialZ       = 25m
*.gNodeB[*].mobility.defaultSpeed   = 20mps
*.gNodeB[*].mobility.updateInterval = 0.1s

*.gNodeB[0].mobility.initialX = 700m
*.gNodeB[0].mobility.initialY = 700m

*.gNodeB[1].mobility.initialX = 1500m
*.gNodeB[1].mobility.initialY = 700m

*.gNodeB[2].mobility.initialX = 1100m
*.gNodeB[2].mobility.initialY = 1500m